*Heading
** Job name: Job-7 Model name: Model-1
** Generated by: Abaqus/CAE 2022
*Preprint, echo=NO, model=NO, history=NO, contact=NO
**
** PARTS
**
*Part, name=Part-1
*Node
      1,           0.,          10.
      2,           0.,           5.
      3,  0.918747604,   4.91486549
      4,   1.80620837,   4.66236115
      5,    2.6321609,   4.25108576
      6,   3.69504452,    3.3684783
      7,   4.25108576,    2.6321609
      8,   4.66236115,   1.80620837
      9,   4.91486549,  0.918747604
     10,           5.,           0.
     11,          10.,           0.
     12,          10.,          10.
     13,           0.,   9.58333302
     14,           0.,   9.16666698
     15,           0.,         8.75
     16,           0.,   8.33333302
     17,           0.,   7.91666651
     18,           0.,          7.5
     19,           0.,   7.08333349
     20,           0.,   6.66666651
** ... 486 like lines cut
*Element, type=CPS4
  1,  60, 121, 105,  59
  2,  65,  66, 122, 300
  3,  64,  65, 300, 472
  4, 104,  57,  58, 155
  5,  51, 100, 116,  50
  6, 222, 246, 176, 177
  7, 126,  98,  35,  36
  8,  98, 180,  34,  35
  9,  42, 115, 181,  41
 10,  71,  72, 107, 125
 11,  73,  74, 108,  93
 12, 144, 133,  28,   6
 13, 204, 255, 253, 196
 14,  90,  20,  21, 147
 15,  19,  89,  85,  18
 16,  25,   4, 142, 194
 17,  20,  90,  89,  19
 18, 471,  23,   2,  24
 19,  24,   3, 136, 471
 20, 140, 139,  26,   5
** ... 443 like lines cut
*Nset, nset=Set-1, generate
   1,  506,    1
*Elset, elset=Set-1, generate
   1,  463,    1
** Section: Section-1
*Solid Section, elset=Set-1, material=Material-1
,
*End Part
**  
**
** ASSEMBLY
**
*Assembly, name=Assembly
**  
*Instance, name=Part-1-1, part=Part-1
*End Instance
**  
*Nset, nset=Set-1, instance=Part-1-1
  1,  2, 13, 14, 15, 16, 17, 18, 19, 20, 21, 22, 23
*Elset, elset=Set-1, instance=Part-1-1
 14, 15, 17, 18, 61, 63, 64, 66, 67, 69, 72, 76
*Nset, nset=Set-2, instance=Part-1-1
 10, 11, 33, 34, 35, 36, 37, 38, 39, 40, 41, 42
*Elset, elset=Set-2, instance=Part-1-1
   7,   8,   9,  25,  27,  28,  33,  87, 113, 114, 168
*Elset, elset=_Surf-1_S4, internal, instance=Part-1-1
   1,   5,  21,  29,  31,  34,  39,  40,  47,  52, 103
*Elset, elset=_Surf-1_S2, internal, instance=Part-1-1
   4,  22,  30,  33,  38,  42,  92, 101, 104, 109, 112
*Surface, type=ELEMENT, name=Surf-1
_Surf-1_S4, S4
_Surf-1_S2, S2
*End Assembly
** 
** MATERIALS
** 
*Material, name=Material-1
*Elastic
200000., 0.3
** 
** BOUNDARY CONDITIONS
** 
** Name: BC-1 Type: Displacement/Rotation
*Boundary
Set-1, 1, 1
** Name: BC-2 Type: Displacement/Rotation
*Boundary
Set-2, 2, 2
** ----------------------------------------------------------------
** 
** STEP: Step-1
** 
*Step, name=Step-1, nlgeom=NO
*Static
1., 1., 1e-05, 1.
** 
** LOADS
** 
** Name: Load-1   Type: Surface traction
*Dsload
Surf-1, TRVEC, 100., 1., 0., 0.
** 
** OUTPUT REQUESTS
** 
*Restart, write, frequency=0
** 
** FIELD OUTPUT: F-Output-1
** 
*Output, field, variable=PRESELECT
** 
** HISTORY OUTPUT: H-Output-1
** 
*Output, history, variable=PRESELECT
*End Step
