*Heading
** Job name: Job-5 Model name: Model-1
** Generated by: Abaqus/CAE 2022
*Preprint, echo=NO, model=NO, history=NO, contact=NO
**
** PARTS
**
*Part, name=Part-1
*Node
      1,           0.,          10.
      2,           0.,           5.
      3,  0.975451589,   4.90392637
      4,   1.91341722,   4.61939764
      5,    2.7778511,   4.15734816
      6,   3.53553391,   3.53553391
      7,   4.15734816,    2.7778511
      8,   4.61939764,   1.91341722
      9,   4.90392637,  0.975451589
     10,           5.,           0.
     11,          10.,           0.
     12,          10.,          10.
     13,           0.,          9.5
     14,           0.,           9.
     15,           0.,          8.5
     16,           0.,           8.
     17,           0.,          7.5
     18,           0.,           7.
     19,           0.,          6.5
     20,           0.,           6.
** ... 389 like lines cut
*Element, type=CPS4
  1,  57, 121, 140,  56
  2,  91,  62,  63,  90
  3,  90,  63,  64,  93
  4, 114, 115, 151, 141
  5,  82,  85,  27,   8
  6,  38, 108, 142,  37
  7,  84,   9,  29, 135
  8, 122,  65,  66,  94
  9, 151, 173, 213, 211
 10,  95, 123, 163, 143
 11,  18,  97,  96,  17
 12,  19,  98,  97,  18
 13,  77,  79,  23,   4
 14,  97,  98, 164, 144
 15,  22,   3,  80, 389
 16,   2,  22, 389,  21
 17,  79,  80,   3,  23
 18, 119, 118, 145, 152
 19,  26,   7,  86,  89
 20, 277, 367, 278, 237
** ... 350 like lines cut
*Nset, nset=Set-1, generate
   1,  409,    1
*Elset, elset=Set-1, generate
   1,  370,    1
** Section: Section-1
*Solid Section, elset=Set-1, material=Material-1
,
*End Part
**  
**
** ASSEMBLY
**
*Assembly, name=Assembly
**  
*Instance, name=Part-1-1, part=Part-1
*End Instance
**  
*Nset, nset=Set-1, instance=Part-1-1
  1,  2, 13, 14, 15, 16, 17, 18, 19, 20, 21
*Elset, elset=Set-1, instance=Part-1-1
  11,  12,  16,  54,  57,  59,  60,  65,  88, 118
*Nset, nset=Set-2, instance=Part-1-1
 10, 11, 30, 31, 32, 33, 34, 35, 36, 37, 38
*Elset, elset=Set-2, instance=Part-1-1
   6,  21,  23,  24,  29,  71,  72,  94,  96, 124
*Elset, elset=_Surf-1_S4, internal, instance=Part-1-1
  1, 26, 27, 30, 33, 34, 35, 40, 80, 82
*Elset, elset=_Surf-1_S2, internal, instance=Part-1-1
  29,  75,  78,  90,  91,  92,  97, 101, 106
*Elset, elset=_Surf-1_S1, internal, instance=Part-1-1
 46,
*Surface, type=ELEMENT, name=Surf-1
_Surf-1_S4, S4
_Surf-1_S2, S2
_Surf-1_S1, S1
*End Assembly
** 
** MATERIALS
** 
*Material, name=Material-1
*Elastic
200000., 0.3
** 
** BOUNDARY CONDITIONS
** 
** Name: BC-1 Type: Displacement/Rotation
*Boundary
Set-1, 1, 1
** Name: BC-2 Type: Displacement/Rotation
*Boundary
Set-2, 2, 2
** ----------------------------------------------------------------
** 
** STEP: Step-1
** 
*Step, name=Step-1, nlgeom=NO
*Static
1., 1., 1e-05, 1.
** 
** LOADS
** 
** Name: Load-1   Type: Surface traction
*Dsload
Surf-1, TRVEC, 100., 1., 0., 0.
** 
** OUTPUT REQUESTS
** 
*Restart, write, frequency=0
** 
** FIELD OUTPUT: F-Output-1
** 
*Output, field, variable=PRESELECT
** 
** HISTORY OUTPUT: H-Output-1
** 
*Output, history, variable=PRESELECT
*End Step
