*Heading
** Job name: QuadMesh2 Model name: Model-1
** Generated by: Abaqus/CAE 2022
*Preprint, echo=NO, model=NO, history=NO, contact=NO
**
** PARTS
**
*Part, name=Part-1
*Node
      1,           0.,          10.
      2,           0.,           5.
      3,  0.868240893,   4.92403889
      4,   1.71010077,   4.69846296
      5,          2.5,   4.33012724
      6,     3.213938,   3.83022213
      7,   4.33012724,          2.5
      8,   4.69846296,   1.71010077
      9,   4.92403889,  0.868240893
     10,           5.,           0.
     11,          10.,           0.
     12,          10.,          10.
     13,           0.,   9.28571415
     14,           0.,    8.5714283
     15,           0.,   7.85714293
     16,           0.,   7.14285707
     17,           0.,   6.42857122
     18,           0.,   5.71428585
     19,   3.83022213,     3.213938
     20,   5.83333349,           0.
** ... 126 like lines cut
*Element, type=CPS4
  1, 119, 107, 104, 120
  2, 102,  68,  58, 126
  3,  35,  58,  34,  12
  4,  60,  71,  38,  39
  5,  37,  38,  71,  59
  6,   7,  53,  56,  19
  7,  50,  49,  22,  23
  8,  49,  75,  21,  22
  9,  10,  20, 125,   9
 10,  61,  65,  28,  29
 11,   6,  54,  57,   5
 12,  55,  76,  47, 137
 13,  47,  17,  18, 137
 14,  17,  47,  45,  16
 15,   2,   3, 137,  18
 16,  50,  51,  78,  92
 17,  74, 100,  75,  49
 18,  51,  50,  23,  24
 19,  25,  51,  24,  11
 20,  65,  62,  27,  28
** ... 103 like lines cut
*Nset, nset=Set-1, generate
   1,  146,    1
*Elset, elset=Set-1, generate
   1,  123,    1
** Section: Section-1
*Solid Section, elset=Set-1, material=Material-1
,
*End Part
**  
**
** ASSEMBLY
**
*Assembly, name=Assembly
**  
*Instance, name=Part-1-1, part=Part-1
*End Instance
**  
*End Assembly
** 
** MATERIALS
** 
*Material, name=Material-1
*Elastic
200000., 0.3
