*Heading
** Job name: QuadMesh1 Model name: Model-1
** Generated by: Abaqus/CAE 2022
*Preprint, echo=NO, model=NO, history=NO, contact=NO
**
** PARTS
**
*Part, name=Part-1
*Node
      1,           0.,          10.
      2,           0.,           5.
      3,  0.975451589,   4.90392637
      4,   1.91341722,   4.61939764
      5,    2.7778511,   4.15734816
      6,   3.53553391,   3.53553391
      7,   4.15734816,    2.7778511
      8,   4.61939764,   1.91341722
      9,   4.90392637,  0.975451589
     10,           5.,           0.
     11,          10.,           0.
     12,          10.,          10.
     13,           0.,           9.
     14,           0.,           8.
     15,           0.,           7.
     16,           0.,           6.
     17,           6.,           0.
     18,           7.,           0.
     19,           8.,           0.
     20,           9.,           0.
** ... 96 like lines cut
*Element, type=CPS4
 1,  34,  35,  57,  47
 2,  33,  34,  47,  45
 3, 109,  29,  12,  30
 4,  26,  54,  48,  25
 5,   8,  42,  44,   7
 6,  49,  21,  22,  51
 7,  17,  61,   9,  10
 8,  21,  49,  20,  11
 9,  47,  57,  69,  71
10,  43,   4,  41,  81
11,  16,  92,  62,  15
12,   2,   3,  92,  16
13,  51,  66,  63,  49
14,  24,  53,  52,  23
15,  51,  52,  73,  66
16,  23,  52,  51,  22
17,  27,  56,  54,  26
18,  45,  55,  32,  33
19,  30,  31,  95, 109
20,  75,  70,  54,  56
** ... 76 like lines cut
*Nset, nset=Set-1, generate
   1,  116,    1
*Elset, elset=Set-1, generate
  1,  96,   1
** Section: Section-1
*Solid Section, elset=Set-1, material=Material-1
,
*End Part
**  
**
** ASSEMBLY
**
*Assembly, name=Assembly
**  
*Instance, name=Part-1-1, part=Part-1
*End Instance
**  
*End Assembly
** 
** MATERIALS
** 
*Material, name=Material-1
*Elastic
200000., 0.3
