*Heading
** Job name: TriMesh2 Model name: Model-1
** Generated by: Abaqus/CAE 2022
*Preprint, echo=NO, model=NO, history=NO, contact=NO
**
** PARTS
**
*Part, name=Part-1
*Node
      1,           0.,          10.
      2,           0.,           5.
      3,  0.868240893,   4.92403889
      4,   1.71010077,   4.69846296
      5,          2.5,   4.33012724
      6,     3.213938,   3.83022213
      7,   4.33012724,          2.5
      8,   4.69846296,   1.71010077
      9,   4.92403889,  0.868240893
     10,           5.,           0.
     11,          10.,           0.
     12,          10.,          10.
     13,           0.,   9.16666698
     14,           0.,   8.33333302
     15,           0.,          7.5
     16,           0.,   6.66666651
     17,           0.,   5.83333349
     18,   3.83022213,     3.213938
     19,   5.83333349,           0.
     20,   6.66666651,           0.
** ... 114 like lines cut
*Element, type=CPS3
  1, 119, 104, 105
  2,  58,  35,  36
  3,  73,  37,  60
  4, 107, 105,  91
  5, 124,  59,  34
  6, 115, 108, 107
  7,  49,  48,  22
  8,  47,  19,  20
  9,   9,  10,  19
 10,  65,  63,  26
 11,  57,   6,  54
 12,  44,  16,  17
 13,  55,   3,   4
 14,  44,  17,   3
 15,  17,   2,   3
 16,  56,  54,  18
 17,  47,  20,  45
 18,  45,  20,  21
 19,  48,  45,  21
 20,  49,  23,  24
** ... 203 like lines cut
*Nset, nset=Set-1, generate
   1,  134,    1
*Elset, elset=Set-1, generate
   1,  223,    1
** Section: Section-1
*Solid Section, elset=Set-1, material=Material-1
,
*End Part
**  
**
** ASSEMBLY
**
*Assembly, name=Assembly
**  
*Instance, name=Part-1-1, part=Part-1
*End Instance
**  
*End Assembly
** 
** MATERIALS
** 
*Material, name=Material-1
*Elastic
200000., 0.3
