*Heading
** Job name: TriMesh1 Model name: Model-1
** Generated by: Abaqus/CAE 2022
*Preprint, echo=NO, model=NO, history=NO, contact=NO
**
** PARTS
**
*Part, name=Part-1
*Node
      1,           0.,          10.
      2,           0.,           5.
      3,  0.975451589,   4.90392637
      4,   1.91341722,   4.61939764
      5,    2.7778511,   4.15734816
      6,   3.53553391,   3.53553391
      7,   4.15734816,    2.7778511
      8,   4.61939764,   1.91341722
      9,   4.90392637,  0.975451589
     10,           5.,           0.
     11,          10.,           0.
     12,          10.,          10.
     13,           0.,           9.
     14,           0.,           8.
     15,           0.,           7.
     16,           0.,           6.
     17,           6.,           0.
     18,           7.,           0.
     19,           8.,           0.
     20,           9.,           0.
** ... 89 like lines cut
*Element, type=CPS3
  1,  58,  33,  34
  2,  40,  32,  39
  3,  69,  55,  56
  4,  59,  58,  34
  5,  42,  31,  40
  6,  43,  41,   6
  7,  44,  21,  22
  8,  49,   9,  17
  9,   9,  10,  17
 10,  51,  22,  23
 11,  60,  47,   4
 12,  47,   3,   4
 13,  48,   3,  47
 14,  16,   2,   3
 15,  49,  17,  18
 16,  66,  20,  44
 17,  44,  20,  21
 18,  20,  11,  21
 19, 100,  75,  88
 20,  52,  51,  23
** ... 158 like lines cut
*Nset, nset=Set-1, generate
   1,  109,    1
*Elset, elset=Set-1, generate
   1,  178,    1
** Section: Section-1
*Solid Section, elset=Set-1, material=Material-1
,
*End Part
**  
**
** ASSEMBLY
**
*Assembly, name=Assembly
**  
*Instance, name=Part-1-1, part=Part-1
*End Instance
**  
*End Assembly
** 
** MATERIALS
** 
*Material, name=Material-1
*Elastic
200000., 0.3
