*Heading
** Job name: HSMesh2 Model name: Model-1
** Generated by: Abaqus/CAE 2022
*Preprint, echo=NO, model=NO, history=NO, contact=NO
**
** PARTS
**
*Part, name=Part-1
*Node
      1,           0.,          10.
      2,           0.,           5.
      3,  0.901275218,    4.9180994
      4,   2.05206394,   4.55949926
      5,   2.84032369,   4.11491919
      6,   3.53553391,   3.53553391
      7,   4.11491919,   2.84032369
      8,   4.67508125,   1.77302444
      9,    4.9180994,  0.901275218
     10,           5.,           0.
     11,          10.,           0.
     12,          10.,          10.
     13,           0.,   9.70588207
     14,           0.,    9.4117651
     15,           0.,   9.11764717
     16,           0.,   8.82352924
     17,           0.,   8.52941132
     18,           0.,   8.23529434
     19,           0.,   7.94117641
     20,           0.,   7.64705896
** ... 1048 like lines cut
*Element, type=CPS3
   1,  248,  102,  211
   2,  344,  212,  246
   3,  213,  211,  103
   4,  160,  150,   37
   5,  216,   97,  184
   6,  161,   38,  151
   7,  128,   56,   57
   8,  243,   44,    9
   9,  477,  242,   46
  10,  166,  162,   41
  11,  251,  250,   91
  12,  344,  249,  212
  13,  265,  259,  176
  14,  351,  288,  271
  15,  187,  168,  108
  16,  159,    5,   36
  17,  191,  169,  113
  18,  218,   22,   23
  19,  136,  130,   21
  20,  241,   32,  149
** ... 1988 like lines cut
*Nset, nset=Set-1, generate
    1,  1068,     1
*Elset, elset=Set-1, generate
    1,  2008,     1
** Section: Section-1
*Solid Section, elset=Set-1, material=Material-1
,
*End Part
**  
**
** ASSEMBLY
**
*Assembly, name=Assembly
**  
*Instance, name=Part-1-1, part=Part-1
*End Instance
**  
*End Assembly
** 
** MATERIALS
** 
*Material, name=Material-1
*Elastic
200000., 0.3
** ----------------------------------------------------------------
** 
** STEP: Step-1
** 
*Step, name=Step-1, nlgeom=NO
*Static
1., 1., 1e-05, 1.
** 
** OUTPUT REQUESTS
** 
*Restart, write, frequency=0
** 
** FIELD OUTPUT: F-Output-1
** 
*Output, field, variable=PRESELECT
** 
** HISTORY OUTPUT: H-Output-1
** 
*Output, history, variable=PRESELECT
*End Step
