*Heading
** Job name: HSMesh3 Model name: Model-1
** Generated by: Abaqus/CAE 2022
*Preprint, echo=NO, model=NO, history=NO, contact=NO
**
** PARTS
**
*Part, name=Part-1
*Node
      1,           0.,          10.
      2,           0.,           5.
      3,  0.782172322,   4.93844175
      4,   1.91341722,   4.61939764
      5,    2.6124928,   4.26320076
      6,   3.53553391,   3.53553391
      7,   4.04508495,   2.93892622
      8,   4.61939764,   1.91341722
      9,   4.86184978,   1.16722679
     10,           5.,           0.
     11,          10.,           0.
     12,          10.,          10.
     13,           0.,   9.61538506
     14,           0.,   9.23076916
     15,           0.,   8.84615421
     16,           0.,   8.46153831
     17,           0.,   8.07692337
     18,           0.,   7.69230747
     19,           0.,   7.30769253
     20,           0.,   6.92307711
** ... 606 like lines cut
*Element, type=CPS3
   1, 221, 200,  70
   2, 128,  78,  79
   3, 141, 139,  81
   4, 141,  82, 130
   5, 187, 155,  72
   6, 149, 148,  62
   7, 108,  44,  45
   8, 107, 106,  41
   9, 170,  99, 106
  10, 281, 212, 266
  11, 140,  76,  77
  12, 276, 209, 271
  13, 143, 142,  84
  14, 124, 117,   5
  15, 157, 144,  87
  16, 102,  20,  21
  17, 102,  98,  20
  18, 103, 102,  21
  19, 185,  27, 121
  20, 320, 184, 255
** ... 1134 like lines cut
*Nset, nset=Set-1, generate
   1,  626,    1
*Elset, elset=Set-1, generate
    1,  1154,     1
** Section: Section-1
*Solid Section, elset=Set-1, material=Material-1
,
*End Part
**  
**
** ASSEMBLY
**
*Assembly, name=Assembly
**  
*Instance, name=Part-1-1, part=Part-1
*End Instance
**  
*End Assembly
** 
** MATERIALS
** 
*Material, name=Material-1
*Elastic
200000., 0.3
** ----------------------------------------------------------------
** 
** STEP: Step-1
** 
*Step, name=Step-1, nlgeom=NO
*Static
1., 1., 1e-05, 1.
** 
** OUTPUT REQUESTS
** 
*Restart, write, frequency=0
** 
** FIELD OUTPUT: F-Output-1
** 
*Output, field, variable=PRESELECT
** 
** HISTORY OUTPUT: H-Output-1
** 
*Output, history, variable=PRESELECT
*End Step
