*Heading
** Job name: HSTest Model name: Model-1
** Generated by: Abaqus/CAE 2022
*Preprint, echo=NO, model=NO, history=NO, contact=NO
**
** PARTS
**
*Part, name=Part-1
*Node
      1,           0.,          30.
      2,           0.,         29.5
      3,           0.,          29.
      4,           0.,         28.5
      5,           0.,          28.
      6,           0.,         27.5
      7,           0.,          27.
      8,           0.,         26.5
      9,           0.,          26.
     10,           0.,         25.5
     11,           0.,          25.
     12,           0.,         24.5
     13,           0.,          24.
     14,           0.,         23.5
     15,           0.,          23.
     16,           0.,         22.5
     17,           0.,          22.
     18,           0.,         21.5
     19,           0.,          21.
     20,           0.,         20.5
** ... 1261 like lines cut
*Element, type=CPS4
   1,    1,    2,   63,   62
   2,    2,    3,   64,   63
   3,    3,    4,   65,   64
   4,    4,    5,   66,   65
   5,    5,    6,   67,   66
   6,    6,    7,   68,   67
   7,    7,    8,   69,   68
   8,    8,    9,   70,   69
   9,    9,   10,   71,   70
  10,   10,   11,   72,   71
  11,   11,   12,   73,   72
  12,   12,   13,   74,   73
  13,   13,   14,   75,   74
  14,   14,   15,   76,   75
  15,   15,   16,   77,   76
  16,   16,   17,   78,   77
  17,   17,   18,   79,   78
  18,   18,   19,   80,   79
  19,   19,   20,   81,   80
  20,   20,   21,   82,   81
** ... 1180 like lines cut
*Nset, nset=Set-1, generate
    1,  1281,     1
*Elset, elset=Set-1, generate
    1,  1200,     1
** Section: Section-1
*Solid Section, elset=Set-1, material=Material-1
,
*End Part
**  
**
** ASSEMBLY
**
*Assembly, name=Assembly
**  
*Instance, name=Part-1-1, part=Part-1
*End Instance
**  
*End Assembly
** 
** MATERIALS
** 
*Material, name=Material-1
*Elastic
200000., 0.3
** ----------------------------------------------------------------
** 
** STEP: Step-1
** 
*Step, name=Step-1, nlgeom=NO
*Static
1., 1., 1e-05, 1.
** 
** OUTPUT REQUESTS
** 
*Restart, write, frequency=0
** 
** FIELD OUTPUT: F-Output-1
** 
*Output, field, variable=PRESELECT
** 
** HISTORY OUTPUT: H-Output-1
** 
*Output, history, variable=PRESELECT
*End Step
