*Heading
** Job name: Job-2 Model name: Model-1
** Generated by: Abaqus/CAE 2022
*Preprint, echo=NO, model=NO, history=NO, contact=NO
**
** PARTS
**
*Part, name=Part-1
*Node
      1,        -0.75,        1.375,           0.
      2,        -0.75,         1.75,           0.
      3,         0.75,         1.75,           0.
      4,         0.75,        1.375,           0.
      5,   0.51223588,    1.2022543,           0.
      6,  0.547745764,   1.27194631,           0.
      7,  0.672745764,   1.36276412,           0.
      8,          0.5,        1.125,           0.
      9,          0.5,           0.,           0.
     10,  0.422745764, -0.0122358706,           0.
     11,  0.297745764, -0.103053689,           0.
     12,   0.26223588, -0.172745749,           0.
     13,   0.26223588, -0.327254236,           0.
     14,  0.297745764, -0.396946311,           0.
     15,  0.422745764,  -0.48776412,           0.
     16,          0.5,         -0.5,           0.
     17,          0.5,       -1.125,           0.
     18,   0.51223588,   -1.2022543,           0.
     19,  0.547745764,  -1.27194631,           0.
     20,  0.672745764,  -1.36276412,           0.
** ... 2371 like lines cut
*Element, type=C3D8
   1,   38,  260,   41,    1,  835, 1057,  838,  798
   2,  144,  359,   46,   45,  941, 1156,  843,  842
   3,  264,  473,  279,  329, 1061, 1270, 1076, 1126
   4,  356,  202,    6,  193, 1153,  999,  803,  990
   5,  741,  260,   38,  198, 1538, 1057,  835,  995
   6,  264,  143,  260,  741, 1061,  940, 1057, 1538
   7,  279,  294,  208,  206, 1076, 1091, 1005, 1003
   8,  335,  201,   40,  191, 1132,  998,  837,  988
   9,  214,  215,   55,   54, 1011, 1012,  852,  851
  10,   68,  258,  234,   69,  865, 1055, 1031,  866
  11,  244,   71,   70,  235, 1041,  868,  867, 1032
  12,   35,  196,  141,   36,  832,  993,  938,  833
  13,   61,  219,  259,   62,  858, 1016, 1056,  859
  14,  328,  754,  191,  163, 1125, 1551,  988,  960
  15,  326,  322,  234,  258, 1123, 1119, 1031, 1055
  16,   77,  249,  250,   78,  874, 1046, 1047,  875
  17,  345,  721,  342,  179, 1142, 1518, 1139,  976
  18,  732,  183,  427,  749, 1529,  980, 1224, 1546
  19,  132,  195,  739,   31,  929,  992, 1536,  828
  20,  184,   15,   83,  733,  981,  812,  880, 1530
** ... 1430 like lines cut
*Nset, nset=Set-1, generate
    1,  2391,     1
*Elset, elset=Set-1, generate
    1,  1450,     1
** Section: Section-1
*Solid Section, elset=Set-1, material=Material-1
,
*End Part
**  
**
** ASSEMBLY
**
*Assembly, name=Assembly
**  
*Instance, name=Part-1-1, part=Part-1
*End Instance
**  
*Nset, nset=Set-1, instance=Part-1-1
    2,    3,   45,   46,   47,   48,   49,   50,   51,   52,   53,   54,   55,   56,   57,   58
   59,   60,   61,   62,  799,  800,  842,  843,  844,  845,  846,  847,  848,  849,  850,  851
  852,  853,  854,  855,  856,  857,  858,  859, 1596, 1597, 1639, 1640, 1641, 1642, 1643, 1644
 1645, 1646, 1647, 1648, 1649, 1650, 1651, 1652, 1653, 1654, 1655, 1656
*Elset, elset=Set-1, instance=Part-1-1
   2,   9,  13,  40,  41,  42,  43,  45,  47,  50,  56, 124, 126, 127, 158, 183
 198, 204, 208, 727, 734, 738, 765, 766, 767, 768, 770, 772, 775, 781, 849, 851
 852, 883, 908, 923, 929, 933
*Nset, nset=Set-2, instance=Part-1-1
   22,   23,   96,   97,   98,   99,  100,  101,  102,  103,  104,  105,  106,  107,  108,  109
  110,  111,  112,  113,  819,  820,  893,  894,  895,  896,  897,  898,  899,  900,  901,  902
  903,  904,  905,  906,  907,  908,  909,  910, 1616, 1617, 1690, 1691, 1692, 1693, 1694, 1695
 1696, 1697, 1698, 1699, 1700, 1701, 1702, 1703, 1704, 1705, 1706, 1707
*Elset, elset=Set-2, instance=Part-1-1
  27,  28,  80,  81,  82,  84,  86,  90,  91,  94,  98, 133, 160, 179, 190, 195
 197, 218, 222, 752, 753, 805, 806, 807, 809, 811, 815, 816, 819, 823, 858, 885
 904, 915, 920, 922, 943, 947
*End Assembly
** 
** MATERIALS
** 
*Material, name=Material-1
*Elastic
200000., 0.3
** 
** BOUNDARY CONDITIONS
** 
** Name: BC-1 Type: Displacement/Rotation
*Boundary
Set-1, 1, 1
Set-1, 2, 2
Set-1, 3, 3
** ----------------------------------------------------------------
** 
** STEP: Step-1
** 
*Step, name=Step-1, nlgeom=NO
*Static
1., 1., 1e-05, 1.
** 
** BOUNDARY CONDITIONS
** 
** Name: BC-2 Type: Displacement/Rotation
*Boundary
Set-2, 2, 2, -0.02
** 
** OUTPUT REQUESTS
** 
*Restart, write, frequency=0
** 
** FIELD OUTPUT: F-Output-1
** 
*Output, field, variable=PRESELECT
** 
** HISTORY OUTPUT: H-Output-1
** 
*Output, history, variable=PRESELECT
*End Step
